<?xml version="1.0" encoding="UTF-8"?>

<!-- generated on 2025-11-04 21:52:39 by Eclipse SUMO netconvert Version 1.18.0
<configuration xmlns:xsi="http://www.w3.org/2001/XMLSchema-instance" xsi:noNamespaceSchemaLocation="http://sumo.dlr.de/xsd/netconvertConfiguration.xsd">

    <input>
        <osm-files value="map.osm"/>
    </input>

    <output>
        <output-file value="map.net.xml"/>
    </output>

    <projection>
        <proj.utm value="true"/>
    </projection>

</configuration>
-->

<net version="1.16" junctionCornerDetail="5" limitTurnSpeed="5.50" xmlns:xsi="http://www.w3.org/2001/XMLSchema-instance" xsi:noNamespaceSchemaLocation="http://sumo.dlr.de/xsd/net_file.xsd">

    <location netOffset="-613302.37,-519869.78" convBoundary="0.00,0.00,3259.75,3753.89" origBoundary="-73.982368,4.702550,-73.949000,4.798016" projParameter="+proj=utm +zone=18 +ellps=WGS84 +datum=WGS84 +units=m +no_defs"/>

    <type id="highway.cycleway" priority="1" numLanes="1" speed="5.56" allow="bicycle" oneway="0" width="2.00"/>
    <type id="highway.footway" priority="1" numLanes="1" speed="2.78" allow="pedestrian" oneway="1" width="2.00"/>
    <type id="highway.path" priority="1" numLanes="1" speed="5.56" allow="pedestrian bicycle" oneway="0" width="2.00"/>
    <type id="highway.primary" priority="12" numLanes="2" speed="27.78" disallow="tram rail_urban rail rail_electric rail_fast ship" oneway="0"/>
    <type id="highway.primary_link" priority="7" numLanes="1" speed="22.22" disallow="tram rail_urban rail rail_electric rail_fast ship" oneway="0"/>
    <type id="highway.residential" priority="3" numLanes="1" speed="13.89" disallow="tram rail_urban rail rail_electric rail_fast ship" oneway="0"/>
    <type id="highway.service" priority="1" numLanes="1" speed="5.56" allow="pedestrian delivery bicycle" oneway="0"/>
    <type id="highway.steps" priority="1" numLanes="1" speed="1.39" allow="pedestrian" oneway="1" width="2.00"/>
    <type id="highway.tertiary" priority="10" numLanes="1" speed="22.22" disallow="tram rail_urban rail rail_electric rail_fast ship" oneway="0"/>
    <type id="highway.track" priority="1" numLanes="1" speed="5.56" allow="pedestrian motorcycle moped bicycle" oneway="0"/>
    <type id="highway.unclassified" priority="4" numLanes="1" speed="13.89" disallow="tram rail_urban rail rail_electric rail_fast ship" oneway="0"/>

    <edge id=":10821147610_0" function="internal">
        <lane id=":10821147610_0_0" index="0" disallow="tram rail_urban rail rail_electric rail_fast ship" speed="3.65" length="4.67" shape="492.54,2125.66 491.89,2126.95 491.15,2127.45 490.31,2127.15 489.36,2126.06"/>
    </edge>
    <edge id=":10923539122_0" function="internal">
        <lane id=":10923539122_0_0" index="0" allow="pedestrian delivery bicycle" speed="4.98" length="5.07" shape="521.25,2291.75 520.35,2290.67 519.33,2290.17 518.20,2290.23 516.95,2290.87"/>
    </edge>
    <edge id=":10923539122_1" function="internal">
        <lane id=":10923539122_1_0" index="0" allow="pedestrian delivery bicycle" speed="7.05" length="10.15" shape="521.25,2291.75 520.08,2289.16 519.94,2286.80 520.81,2284.69 522.71,2282.82"/>
    </edge>
    <edge id=":10923539122_2" function="internal">
        <lane id=":10923539122_2_0" index="0" allow="pedestrian delivery bicycle" speed="3.65" length="4.67" shape="521.25,2291.75 521.30,2290.31 521.77,2289.55 522.66,2289.47 523.97,2290.07"/>
    </edge>
    <edge id=":10923539122_3" function="internal">
        <lane id=":10923539122_3_0" index="0" allow="pedestrian delivery bicycle" speed="5.28" length="5.27" shape="524.59,2285.41 523.65,2286.36 523.23,2287.45 523.34,2288.69 523.97,2290.07"/>
    </edge>
    <edge id=":10923539122_4" function="internal">
        <lane id=":10923539122_4_0" index="0" disallow="tram rail_urban rail rail_electric rail_fast ship" speed="13.89" length="9.39" shape="524.59,2285.41 516.95,2290.87"/>
    </edge>
    <edge id=":10923539122_5" function="internal">
        <lane id=":10923539122_5_0" index="0" disallow="tram rail_urban rail rail_electric rail_fast ship" speed="13.89" length="9.34" shape="515.11,2288.25 522.71,2282.82"/>
    </edge>
    <edge id=":10923539122_6" function="internal">
        <lane id=":10923539122_6_0" index="0" allow="pedestrian delivery bicycle" speed="6.81" length="3.27" shape="515.11,2288.25 517.69,2286.94 518.07,2286.92"/>
    </edge>
    <edge id=":10923539122_7" function="internal">
        <lane id=":10923539122_7_0" index="0" allow="pedestrian delivery bicycle" speed="6.81" length="7.19" shape="518.07,2286.92 520.03,2286.81 522.12,2287.85 523.97,2290.07"/>
    </edge>
    <edge id=":10923539123_0" function="internal">
        <lane id=":10923539123_0_0" index="0" allow="pedestrian delivery bicycle" speed="3.65" length="4.67" shape="579.39,2379.96 579.34,2381.40 578.87,2382.16 577.98,2382.24 576.67,2381.64"/>
    </edge>
    <edge id=":11566546393_0" function="internal">
        <lane id=":11566546393_0_0" index="0" disallow="tram rail_urban rail rail_electric rail_fast ship" speed="6.90" length="9.01" shape="720.72,1131.67 719.02,1129.80 717.15,1128.77 715.12,1128.59 712.91,1129.26"/>
    </edge>
    <edge id=":11566546393_1" function="internal">
        <lane id=":11566546393_1_0" index="0" disallow="tram rail_urban rail rail_electric rail_fast ship" speed="27.78" length="14.41" shape="720.72,1131.67 718.79,1128.58 717.16,1125.43 715.65,1122.21 714.06,1118.91"/>
    </edge>
    <edge id=":11566546393_2" function="internal">
        <lane id=":11566546393_2_0" index="0" disallow="tram rail_urban rail rail_electric rail_fast ship" speed="3.66" length="1.46" shape="720.72,1131.67 720.89,1130.23"/>
    </edge>
    <edge id=":11566546393_9" function="internal">
        <lane id=":11566546393_9_0" index="0" disallow="tram rail_urban rail rail_electric rail_fast ship" speed="3.66" length="3.26" shape="720.89,1130.23 721.43,1129.50 722.33,1129.50 723.60,1130.21"/>
    </edge>
    <edge id=":11566546393_3" function="internal">
        <lane id=":11566546393_3_0" index="0" disallow="tram rail_urban rail rail_electric rail_fast ship" speed="27.78" length="14.41" shape="716.92,1117.47 718.51,1120.76 720.03,1123.98 721.66,1127.12 723.60,1130.21"/>
    </edge>
    <edge id=":11566546393_4" function="internal">
        <lane id=":11566546393_4_0" index="0" disallow="tram rail_urban rail rail_electric rail_fast ship" speed="7.96" length="4.24" shape="716.92,1117.47 718.18,1121.18 718.15,1121.50"/>
    </edge>
    <edge id=":11566546393_5" function="internal">
        <lane id=":11566546393_5_0" index="0" disallow="tram rail_urban rail rail_electric rail_fast ship" speed="3.65" length="1.44" shape="716.92,1117.47 716.75,1118.90"/>
    </edge>
    <edge id=":11566546393_10" function="internal">
        <lane id=":11566546393_10_0" index="0" disallow="tram rail_urban rail rail_electric rail_fast ship" speed="7.96" length="10.03" shape="718.15,1121.50 717.93,1124.39 716.17,1127.08 712.91,1129.26"/>
    </edge>
    <edge id=":11566546393_11" function="internal">
        <lane id=":11566546393_11_0" index="0" disallow="tram rail_urban rail rail_electric rail_fast ship" speed="3.65" length="3.23" shape="716.75,1118.90 716.21,1119.62 715.32,1119.62 714.06,1118.91"/>
    </edge>
    <edge id=":11566546393_6" function="internal">
        <lane id=":11566546393_6_0" index="0" disallow="tram rail_urban rail rail_electric rail_fast ship" speed="6.46" length="9.03" shape="711.53,1126.38 713.59,1125.00 714.70,1123.29 714.86,1121.26 714.06,1118.91"/>
    </edge>
    <edge id=":11566546393_7" function="internal">
        <lane id=":11566546393_7_0" index="0" disallow="tram rail_urban rail rail_electric rail_fast ship" speed="8.45" length="13.97" shape="711.53,1126.38 714.92,1125.35 718.06,1125.65 720.95,1127.27 723.60,1130.21"/>
    </edge>
    <edge id=":11566546393_8" function="internal">
        <lane id=":11566546393_8_0" index="0" disallow="tram rail_urban rail rail_electric rail_fast ship" speed="3.65" length="4.67" shape="711.53,1126.38 712.96,1126.58 713.66,1127.13 713.65,1128.02 712.91,1129.26"/>
    </edge>
    <edge id=":11566546403_0" function="internal">
        <lane id=":11566546403_0_0" index="0" disallow="tram rail_urban rail rail_electric rail_fast ship" speed="3.65" length="4.67" shape="649.03,1115.05 648.32,1116.31 647.55,1116.76 646.72,1116.41 645.84,1115.27"/>
    </edge>
    <edge id=":11711251634_0" function="internal">
        <lane id=":11711251634_0_0" index="0" allow="pedestrian delivery bicycle" speed="3.65" length="4.67" shape="1159.38,2676.76 1158.70,2678.03 1157.95,2678.51 1157.11,2678.19 1156.20,2677.07"/>
    </edge>
    <edge id=":11721800311_0" function="internal">
        <lane id=":11721800311_0_0" index="0" allow="pedestrian motorcycle moped bicycle" speed="3.65" length="4.67" shape="380.88,2409.98 379.59,2410.63 378.70,2410.59 378.20,2409.85 378.09,2408.41"/>
    </edge>
    <edge id=":11721800314_0" function="internal">
        <lane id=":11721800314_0_0" index="0" allow="pedestrian motorcycle moped bicycle" speed="3.65" length="4.67" shape="536.21,2381.45 536.10,2382.89 535.60,2383.63 534.71,2383.68 533.42,2383.03"/>
    </edge>
    <edge id=":11721800330_0" function="internal">
        <lane id=":11721800330_0_0" index="0" allow="pedestrian delivery bicycle" speed="3.65" length="4.67" shape="647.35,2204.06 646.44,2205.18 645.60,2205.50 644.84,2205.03 644.16,2203.76"/>
    </edge>
    <edge id=":11721815370_0" function="internal">
        <lane id=":11721815370_0_0" index="0" disallow="tram rail_urban rail rail_electric rail_fast ship" speed="13.89" length="2.81" shape="640.77,2576.17 638.89,2578.26"/>
    </edge>
    <edge id=":11721815370_1" function="internal">
        <lane id=":11721815370_1_0" index="0" disallow="tram rail_urban rail rail_electric rail_fast ship" speed="13.89" length="2.81" shape="636.51,2576.13 638.38,2574.03"/>
    </edge>
    <edge id=":11721815448_0" function="internal">
        <lane id=":11721815448_0_0" index="0" disallow="tram rail_urban rail rail_electric rail_fast ship" speed="3.65" length="4.67" shape="854.22,1511.70 853.31,1510.58 853.17,1509.70 853.79,1509.05 855.17,1508.65"/>
    </edge>
    <edge id=":11721815468_0" function="internal">
        <lane id=":11721815468_0_0" index="0" allow="pedestrian delivery bicycle" speed="5.56" length="5.87" shape="1117.43,1540.96 1111.99,1543.15"/>
    </edge>
    <edge id=":11721815468_1" function="internal">
        <lane id=":11721815468_1_0" index="0" allow="bicycle" speed="5.56" length="7.59" width="2.00" shape="1117.21,1540.40 1115.63,1540.64 1114.24,1540.02 1113.02,1538.54 1111.97,1536.21"/>
    </edge>
    <edge id=":11721815468_2" function="internal">
        <lane id=":11721815468_2_0" index="0" allow="pedestrian delivery bicycle" speed="3.65" length="4.67" shape="1117.43,1540.96 1116.02,1540.67 1115.35,1540.07 1115.42,1539.18 1116.23,1537.99"/>
    </edge>
    <edge id=":11721815468_3" function="internal">
        <lane id=":11721815468_3_0" index="0" allow="bicycle" speed="3.97" length="3.21" width="2.00" shape="1113.86,1535.55 1114.31,1536.57 1114.82,1537.23 1115.38,1537.51 1116.01,1537.43"/>
    </edge>
    <edge id=":11721815468_4" function="internal">
        <lane id=":11721815468_4_0" index="0" allow="bicycle" speed="5.56" length="9.25" width="2.00" shape="1113.86,1535.55 1114.61,1538.53 1114.59,1540.88 1113.79,1542.61 1112.21,1543.71"/>
    </edge>
    <edge id=":11721815468_5" function="internal">
        <lane id=":11721815468_5_0" index="0" allow="bicycle" speed="2.89" length="2.92" width="2.00" shape="1113.86,1535.55 1113.64,1536.42 1113.24,1536.82 1112.69,1536.75 1111.97,1536.21"/>
    </edge>
    <edge id=":11721815468_6" function="internal">
        <lane id=":11721815468_6_0" index="0" allow="bicycle" speed="4.76" length="4.17" width="2.00" shape="1110.57,1539.63 1111.51,1539.07 1112.05,1538.31 1112.21,1537.36 1111.97,1536.21"/>
    </edge>
    <edge id=":11721815468_7" function="internal">
        <lane id=":11721815468_7_0" index="0" allow="pedestrian delivery bicycle" speed="5.56" length="5.87" shape="1110.79,1540.19 1116.23,1537.99"/>
    </edge>
    <edge id=":11721815468_8" function="internal">
        <lane id=":11721815468_8_0" index="0" allow="pedestrian delivery bicycle" speed="3.65" length="4.67" shape="1110.79,1540.19 1112.20,1540.48 1112.87,1541.07 1112.80,1541.96 1111.99,1543.15"/>
    </edge>
    <edge id=":11721815470_0" function="internal">
        <lane id=":11721815470_0_0" index="0" allow="bicycle" speed="5.56" length="0.28" width="2.00" shape="1030.79,1573.01 1030.80,1573.30"/>
    </edge>
    <edge id=":11721815470_1" function="internal">
        <lane id=":11721815470_1_0" index="0" allow="bicycle" speed="5.56" length="0.22" width="2.00" shape="1028.80,1573.28 1028.79,1573.06"/>
    </edge>
    <edge id=":11721815471_0" function="internal">
        <lane id=":11721815471_0_0" index="0" allow="bicycle" speed="4.54" length="3.49" width="2.00" shape="1030.09,1610.76 1030.13,1609.84 1030.28,1608.78 1030.26,1607.89 1029.81,1607.47"/>
    </edge>
    <edge id=":11721815471_1" function="internal">
        <lane id=":11721815471_1_0" index="0" allow="bicycle" speed="5.56" length="10.53" width="2.00" shape="1030.09,1610.76 1029.07,1600.28"/>
    </edge>
    <edge id=":11721815471_2" function="internal">
        <lane id=":11721815471_2_0" index="0" allow="bicycle" speed="6.27" length="10.46" width="2.00" shape="1030.09,1610.76 1030.05,1607.38 1030.88,1605.09 1032.57,1603.89 1035.14,1603.78"/>
    </edge>
    <edge id=":11721815471_3" function="internal">
        <lane id=":11721815471_3_0" index="0" allow="bicycle" speed="2.89" length="2.92" width="2.00" shape="1030.09,1610.76 1030.49,1609.95 1030.96,1609.64 1031.49,1609.83 1032.07,1610.52"/>
    </edge>
    <edge id=":11721815471_4" function="internal">
        <lane id=":11721815471_4_0" index="0" allow="bicycle" speed="4.36" length="4.18" width="2.00" shape="1034.51,1608.13 1033.32,1608.13 1032.51,1608.53 1032.10,1609.32 1032.07,1610.52"/>
    </edge>
    <edge id=":11721815471_5" function="internal">
        <lane id=":11721815471_5_0" index="0" disallow="tram rail_urban rail rail_electric rail_fast ship" speed="13.89" length="4.76" shape="1034.60,1607.54 1029.88,1606.87"/>
    </edge>
    <edge id=":11721815471_6" function="internal">
        <lane id=":11721815471_6_0" index="0" allow="bicycle" speed="7.23" length="0.72" width="2.00" shape="1034.68,1606.94 1033.99,1606.73"/>
    </edge>
    <edge id=":11721815471_14" function="internal">
        <lane id=":11721815471_14_0" index="0" allow="bicycle" speed="7.23" length="8.81" width="2.00" shape="1033.99,1606.73 1032.39,1606.25 1030.69,1604.91 1029.58,1602.92 1029.07,1600.28"/>
    </edge>
    <edge id=":11721815471_7" function="internal">
        <lane id=":11721815471_7_0" index="0" allow="bicycle" speed="5.72" length="5.97" width="2.00" shape="1031.06,1600.13 1031.40,1601.52 1032.19,1602.59 1033.44,1603.34 1035.14,1603.78"/>
    </edge>
    <edge id=":11721815471_8" function="internal">
        <lane id=":11721815471_8_0" index="0" allow="bicycle" speed="5.56" length="10.43" width="2.00" shape="1031.06,1600.13 1032.07,1610.52"/>
    </edge>
    <edge id=":11721815471_9" function="internal">
        <lane id=":11721815471_9_0" index="0" allow="bicycle" speed="5.64" length="7.88" width="2.00" shape="1031.06,1600.13 1031.19,1603.42 1031.02,1605.73 1030.57,1607.08 1029.81,1607.47"/>
    </edge>
    <edge id=":11721815471_10" function="internal">
        <lane id=":11721815471_10_0" index="0" allow="bicycle" speed="2.89" length="2.92" width="2.00" shape="1031.06,1600.13 1030.62,1600.92 1030.14,1601.20 1029.62,1600.99 1029.07,1600.28"/>
    </edge>
    <edge id=":11721815471_11" function="internal">
        <lane id=":11721815471_11_0" index="0" allow="bicycle" speed="3.96" length="3.07" width="2.00" shape="1030.30,1603.09 1029.07,1600.28"/>
    </edge>
    <edge id=":11721815471_12" function="internal">
        <lane id=":11721815471_12_0" index="0" disallow="tram rail_urban rail rail_electric rail_fast ship" speed="13.89" length="4.86" shape="1030.24,1603.69 1035.05,1604.37"/>
    </edge>
    <edge id=":11721815471_13" function="internal">
        <lane id=":11721815471_13_0" index="0" allow="bicycle" speed="6.21" length="2.46" width="2.00" shape="1030.17,1604.29 1030.73,1604.73 1031.23,1605.91 1031.33,1606.36"/>
    </edge>
    <edge id=":11721815471_15" function="internal">
        <lane id=":11721815471_15_0" index="0" allow="bicycle" speed="6.21" length="4.22" width="2.00" shape="1031.33,1606.36 1031.68,1607.84 1032.07,1610.52"/>
    </edge>
    <edge id=":11721815472_0" function="internal">
        <lane id=":11721815472_0_0" index="0" allow="bicycle" speed="3.69" length="2.51" width="2.00" shape="1051.47,1827.31 1050.00,1825.28"/>
    </edge>
    <edge id=":11721815472_1" function="internal">
        <lane id=":11721815472_1_0" index="0" allow="bicycle" speed="5.56" length="13.20" width="2.00" shape="1051.47,1827.31 1049.24,1824.74 1047.99,1821.93 1047.38,1818.80 1047.07,1815.28"/>
    </edge>
    <edge id=":11721815472_2" function="internal">
        <lane id=":11721815472_2_0" index="0" allow="bicycle" speed="7.60" length="12.71" width="2.00" shape="1051.47,1827.31 1049.58,1824.93 1049.02,1822.25 1049.79,1819.29 1051.89,1816.04"/>
    </edge>
    <edge id=":11721815472_3" function="internal">
        <lane id=":11721815472_3_0" index="0" allow="bicycle" speed="2.89" length="2.92" width="2.00" shape="1051.47,1827.31 1051.23,1826.44 1051.38,1825.90 1051.89,1825.69 1052.79,1825.81"/>
    </edge>
    <edge id=":11721815472_4" function="internal">
        <lane id=":11721815472_4_0" index="0" allow="bicycle" speed="6.24" length="7.98" width="2.00" shape="1055.30,1818.81 1053.51,1821.27 1052.49,1823.25 1052.25,1824.76 1052.79,1825.81"/>
    </edge>
    <edge id=":11721815472_5" function="internal">
        <lane id=":11721815472_5_0" index="0" disallow="tram rail_urban rail rail_electric rail_fast ship" speed="13.89" length="8.32" shape="1054.84,1818.43 1049.57,1824.87"/>
    </edge>
    <edge id=":11721815472_6" function="internal">
        <lane id=":11721815472_6_0" index="0" allow="bicycle" speed="6.16" length="0.95" width="2.00" shape="1054.37,1818.06 1053.69,1818.72"/>
    </edge>
    <edge id=":11721815472_14" function="internal">
        <lane id=":11721815472_14_0" index="0" allow="bicycle" speed="6.16" length="12.03" width="2.00" shape="1053.69,1818.72 1051.46,1820.90 1049.28,1821.39 1047.81,1819.51 1047.07,1815.28"/>
    </edge>
    <edge id=":11721815472_7" function="internal">
        <lane id=":11721815472_7_0" index="0" allow="bicycle" speed="3.94" length="4.93" width="2.00" shape="1049.07,1815.14 1049.35,1816.71 1049.91,1817.38 1050.76,1817.15 1051.89,1816.04"/>
    </edge>
    <edge id=":11721815472_8" function="internal">
        <lane id=":11721815472_8_0" index="0" allow="bicycle" speed="5.56" length="11.73" width="2.00" shape="1049.07,1815.14 1049.27,1818.45 1049.65,1821.11 1050.67,1823.45 1052.79,1825.81"/>
    </edge>
    <edge id=":11721815472_9" function="internal">
        <lane id=":11721815472_9_0" index="0" allow="bicycle" speed="9.72" length="10.18" width="2.00" shape="1049.07,1815.14 1050.00,1825.28"/>
    </edge>
    <edge id=":11721815472_10" function="internal">
        <lane id=":11721815472_10_0" index="0" allow="bicycle" speed="2.89" length="2.92" width="2.00" shape="1049.07,1815.14 1048.62,1815.93 1048.14,1816.21 1047.62,1816.00 1047.07,1815.28"/>
    </edge>
    <edge id=":11721815472_11" function="internal">
        <lane id=":11721815472_11_0" index="0" allow="bicycle" speed="8.54" length="7.04" width="2.00" shape="1046.81,1822.26 1047.09,1821.54 1047.22,1820.14 1047.22,1818.06 1047.07,1815.28"/>
    </edge>
    <edge id=":11721815472_12" function="internal">
        <lane id=":11721815472_12_0" index="0" disallow="tram rail_urban rail rail_electric rail_fast ship" speed="13.89" length="8.08" shape="1047.24,1822.67 1052.36,1816.42"/>
    </edge>
    <edge id=":11721815472_13" function="internal">
        <lane id=":11721815472_13_0" index="0" allow="bicycle" speed="5.53" length="0.42" width="2.00" shape="1047.68,1823.08 1048.09,1822.96"/>
    </edge>
    <edge id=":11721815472_15" function="internal">
        <lane id=":11721815472_15_0" index="0" allow="bicycle" speed="5.53" length="5.63" width="2.00" shape="1048.09,1822.96 1048.34,1822.89 1049.41,1823.28 1050.89,1824.26 1052.79,1825.81"/>
    </edge>
    <edge id=":12512525199_0" function="internal">
        <lane id=":12512525199_0_0" index="0" disallow="tram rail_urban rail rail_electric rail_fast ship" speed="3.65" length="4.67" shape="1452.72,2435.72 1454.17,2435.69 1454.95,2436.11 1455.08,2437.00 1454.56,2438.34"/>
    </edge>
    <edge id=":12520527871_0" function="internal">
        <lane id=":12520527871_0_0" index="0" disallow="tram rail_urban rail rail_electric rail_fast ship" speed="12.02" length="14.49" shape="956.35,1321.14 953.81,1321.25 950.82,1322.29 947.39,1324.25 943.52,1327.13"/>
    </edge>
    <edge id=":12520527871_1" function="internal">
        <lane id=":12520527871_1_0" index="0" disallow="tram rail_urban rail rail_electric rail_fast ship" speed="27.78" length="16.67" shape="956.35,1321.14 939.86,1318.72"/>
    </edge>
    <edge id=":12520527871_2" function="internal">
        <lane id=":12520527871_2_0" index="0" disallow="tram rail_urban rail rail_electric rail_fast ship" speed="3.65" length="1.44" shape="956.35,1321.14 955.28,1320.17"/>
    </edge>
    <edge id=":12520527871_9" function="internal">
        <lane id=":12520527871_9_0" index="0" disallow="tram rail_urban rail rail_electric rail_fast ship" speed="3.65" length="3.23" shape="955.28,1320.17 955.00,1319.32 955.51,1318.59 956.82,1317.97"/>
    </edge>
    <edge id=":12520527871_3" function="internal">
        <lane id=":12520527871_3_0" index="0" disallow="tram rail_urban rail rail_electric rail_fast ship" speed="27.78" length="16.68" shape="940.32,1315.55 956.82,1317.97"/>
    </edge>
    <edge id=":12520527871_4" function="internal">
        <lane id=":12520527871_4_0" index="0" disallow="tram rail_urban rail rail_electric rail_fast ship" speed="7.40" length="5.77" shape="940.32,1315.55 945.89,1317.04"/>
    </edge>
    <edge id=":12520527871_5" function="internal">
        <lane id=":12520527871_5_0" index="0" disallow="tram rail_urban rail rail_electric rail_fast ship" speed="3.65" length="1.44" shape="940.32,1315.55 941.39,1316.52"/>
    </edge>
    <edge id=":12520527871_10" function="internal">
        <lane id=":12520527871_10_0" index="0" disallow="tram rail_urban rail rail_electric rail_fast ship" speed="7.40" length="12.99" shape="945.89,1317.04 946.05,1317.09 948.49,1319.53 947.65,1322.87 943.52,1327.13"/>
    </edge>
    <edge id=":12520527871_11" function="internal">
        <lane id=":12520527871_11_0" index="0" disallow="tram rail_urban rail rail_electric rail_fast ship" speed="3.65" length="3.23" shape="941.39,1316.52 941.67,1317.37 941.16,1318.10 939.86,1318.72"/>
    </edge>
    <edge id=":12520527871_6" function="internal">
        <lane id=":12520527871_6_0" index="0" disallow="tram rail_urban rail rail_electric rail_fast ship" speed="5.49" length="9.61" shape="941.49,1324.65 943.61,1322.47 944.04,1320.75 942.79,1319.50 939.86,1318.72"/>
    </edge>
    <edge id=":12520527871_7" function="internal">
        <lane id=":12520527871_7_0" index="0" disallow="tram rail_urban rail rail_electric rail_fast ship" speed="13.04" length="17.13" shape="941.49,1324.65 945.93,1321.39 949.96,1319.20 953.59,1318.05 956.82,1317.97"/>
    </edge>
    <edge id=":12520527871_8" function="internal">
        <lane id=":12520527871_8_0" index="0" disallow="tram rail_urban rail rail_electric rail_fast ship" speed="3.65" length="4.67" shape="941.49,1324.65 942.93,1324.51 943.75,1324.88 943.94,1325.75 943.52,1327.13"/>
    </edge>
    <edge id=":12520527886_0" function="internal">
        <lane id=":12520527886_0_0" index="0" disallow="tram rail_urban rail rail_electric rail_fast ship" speed="8.29" length="11.94" shape="619.40,1327.88 616.34,1326.81 613.50,1326.74 610.89,1327.68 608.51,1329.62"/>
    </edge>
    <edge id=":12520527886_1" function="internal">
        <lane id=":12520527886_1_0" index="0" disallow="tram rail_urban rail rail_electric rail_fast ship" speed="13.89" length="16.30" shape="619.40,1327.88 615.89,1326.08 612.20,1324.08 608.55,1322.00 605.17,1319.95"/>
    </edge>
    <edge id=":12520527886_2" function="internal">
        <lane id=":12520527886_2_0" index="0" disallow="tram rail_urban rail rail_electric rail_fast ship" speed="7.58" length="15.42" shape="619.40,1327.88 615.76,1325.38 614.17,1322.50 614.64,1319.24 617.16,1315.61"/>
    </edge>
    <edge id=":12520527886_3" function="internal">
        <lane id=":12520527886_3_0" index="0" disallow="tram rail_urban rail rail_electric rail_fast ship" speed="3.65" length="4.67" shape="619.40,1327.88 618.68,1326.63 618.68,1325.74 619.40,1325.20 620.83,1325.01"/>
    </edge>
    <edge id=":12520527886_4" function="internal">
        <lane id=":12520527886_4_0" index="0" disallow="tram rail_urban rail rail_electric rail_fast ship" speed="5.97" length="9.08" shape="619.50,1317.78 618.02,1319.92 617.74,1321.84 618.68,1323.54 620.83,1325.01"/>
    </edge>
    <edge id=":12520527886_5" function="internal">
        <lane id=":12520527886_5_0" index="0" disallow="tram rail_urban rail rail_electric rail_fast ship" speed="13.89" length="16.16" shape="619.50,1317.78 608.51,1329.62"/>
    </edge>
    <edge id=":12520527886_6" function="internal">
        <lane id=":12520527886_6_0" index="0" disallow="tram rail_urban rail rail_electric rail_fast ship" speed="9.09" length="4.55" shape="619.50,1317.78 616.15,1320.56 615.96,1320.63"/>
    </edge>
    <edge id=":12520527886_7" function="internal">
        <lane id=":12520527886_7_0" index="0" disallow="tram rail_urban rail rail_electric rail_fast ship" speed="3.65" length="1.44" shape="619.50,1317.78 618.10,1318.12"/>
    </edge>
    <edge id=":12520527886_16" function="internal">
        <lane id=":12520527886_16_0" index="0" disallow="tram rail_urban rail rail_electric rail_fast ship" speed="9.09" length="11.37" shape="615.96,1320.63 612.65,1321.85 608.99,1321.64 605.17,1319.95"/>
    </edge>
    <edge id=":12520527886_17" function="internal">
        <lane id=":12520527886_17_0" index="0" disallow="tram rail_urban rail rail_electric rail_fast ship" speed="3.65" length="3.23" shape="618.10,1318.12 617.24,1317.87 616.93,1317.03 617.16,1315.61"/>
    </edge>
    <edge id=":12520527886_8" function="internal">
        <lane id=":12520527886_8_0" index="0" disallow="tram rail_urban rail rail_electric rail_fast ship" speed="7.79" length="11.45" shape="606.87,1317.24 609.59,1318.44 612.21,1318.57 614.74,1317.62 617.16,1315.61"/>
    </edge>
    <edge id=":12520527886_9" function="internal">
        <lane id=":12520527886_9_0" index="0" disallow="tram rail_urban rail rail_electric rail_fast ship" speed="13.89" length="15.99" shape="606.87,1317.24 610.21,1319.26 613.76,1321.29 617.35,1323.23 620.83,1325.01"/>
    </edge>
    <edge id=":12520527886_10" function="internal">
        <lane id=":12520527886_10_0" index="0" disallow="tram rail_urban rail rail_electric rail_fast ship" speed="7.70" length="14.96" shape="606.87,1317.24 610.09,1319.96 611.43,1322.93 610.91,1326.16 608.51,1329.62"/>
    </edge>
    <edge id=":12520527886_11" function="internal">
        <lane id=":12520527886_11_0" index="0" disallow="tram rail_urban rail rail_electric rail_fast ship" speed="3.65" length="4.67" shape="606.87,1317.24 607.46,1318.55 607.37,1319.44 606.61,1319.91 605.17,1319.95"/>
    </edge>
    <edge id=":12520527886_12" function="internal">
        <lane id=":12520527886_12_0" index="0" disallow="tram rail_urban rail rail_electric rail_fast ship" speed="6.14" length="9.06" shape="606.16,1327.45 607.61,1325.35 607.93,1323.40 607.12,1321.60 605.17,1319.95"/>
    </edge>
    <edge id=":12520527886_13" function="internal">
        <lane id=":12520527886_13_0" index="0" disallow="tram rail_urban rail rail_electric rail_fast ship" speed="13.89" length="16.16" shape="606.16,1327.45 617.16,1315.61"/>
    </edge>
    <edge id=":12520527886_14" function="internal">
        <lane id=":12520527886_14_0" index="0" disallow="tram rail_urban rail rail_electric rail_fast ship" speed="9.54" length="4.37" shape="606.16,1327.45 609.39,1324.80 609.58,1324.73"/>
    </edge>
    <edge id=":12520527886_15" function="internal">
        <lane id=":12520527886_15_0" index="0" disallow="tram rail_urban rail rail_electric rail_fast ship" speed="3.65" length="1.44" shape="606.16,1327.45 607.57,1327.11"/>
    </edge>
    <edge id=":12520527886_18" function="internal">
        <lane id=":12520527886_18_0" index="0" disallow="tram rail_urban rail rail_electric rail_fast ship" speed="9.54" length="11.70" shape="609.58,1324.73 612.91,1323.52 616.72,1323.59 620.83,1325.01"/>
    </edge>
    <edge id=":12520527886_19" function="internal">
        <lane id=":12520527886_19_0" index="0" disallow="tram rail_urban rail rail_electric rail_fast ship" speed="3.65" length="3.23" shape="607.57,1327.11 608.42,1327.36 608.74,1328.20 608.51,1329.62"/>
    </edge>
    <edge id=":12520527887_0" function="internal">
        <lane id=":12520527887_0_0" index="0" disallow="tram rail_urban rail rail_electric rail_fast ship" speed="13.89" length="0.10" shape="573.76,1303.43 573.76,1303.43"/>
    </edge>
    <edge id=":12520527887_1" function="internal">
        <lane id=":12520527887_1_0" index="0" disallow="tram rail_urban rail rail_electric rail_fast ship" speed="13.89" length="0.10" shape="575.21,1300.58 575.21,1300.58"/>
    </edge>
    <edge id=":12520527888_0" function="internal">